Version 4
SHEET 1 880 680
WIRE 368 32 368 0
WIRE 368 160 368 112
WIRE 432 160 368 160
WIRE 432 224 432 160
WIRE 480 224 432 224
WIRE 560 224 544 224
WIRE 560 272 560 224
WIRE 432 288 432 224
WIRE 368 304 256 304
WIRE 256 336 256 304
WIRE 560 400 560 352
WIRE 256 464 256 416
WIRE 432 464 432 320
WIRE 432 608 432 544
FLAG 560 400 0
FLAG 368 0 0
FLAG 256 464 0
FLAG 432 608 0
SYMBOL AutoGenerated/BFP520_INF 400 304 R0
SYMATTR InstName U1
SYMBOL voltage 368 128 R180
WINDOW 0 24 96 Left 2
WINDOW 3 24 16 Left 2
SYMATTR InstName V1
SYMATTR Value 5
SYMBOL res 544 256 R0
SYMATTR InstName R1
SYMATTR Value 10k
SYMBOL cap 544 208 R90
WINDOW 0 0 32 VBottom 2
WINDOW 3 32 32 VTop 2
SYMATTR InstName C1
SYMATTR Value 1m
SYMBOL voltage 256 320 R0
WINDOW 123 24 118 Left 2
SYMATTR InstName V2
SYMATTR Value ""
SYMATTR Value2 AC 1 0
SYMATTR SpiceLine Rser=50
SYMBOL current 432 464 R0
SYMATTR InstName I1
SYMATTR Value 1m
TEXT 592 160 Left 2 !.ac dec 2000 1e9 50e9
