Version 4
SHEET 1 2092 832
WIRE 208 -208 208 -240
WIRE 208 -96 208 -128
WIRE 208 -96 80 -96
WIRE 304 -96 208 -96
WIRE 80 -32 80 -96
WIRE 304 -32 304 -96
WIRE 304 96 304 48
WIRE 400 96 304 96
WIRE 464 96 400 96
WIRE 608 96 528 96
WIRE 784 96 688 96
WIRE 864 96 784 96
WIRE 1024 96 928 96
WIRE 1088 96 1024 96
WIRE 304 128 304 96
WIRE 400 128 400 96
WIRE 240 144 192 144
WIRE 784 144 784 96
WIRE 1024 144 1024 96
WIRE 304 224 304 160
WIRE 400 224 400 192
WIRE 400 224 304 224
WIRE 400 240 400 224
WIRE 192 256 192 144
WIRE 80 288 80 48
WIRE 176 288 80 288
WIRE 80 352 80 288
WIRE 304 352 304 224
WIRE 400 352 400 304
WIRE 784 352 784 224
WIRE 1024 352 1024 224
WIRE 176 368 176 288
WIRE 176 368 144 368
WIRE 240 368 176 368
WIRE 80 464 80 384
WIRE 208 464 80 464
WIRE 304 464 304 384
WIRE 304 464 208 464
WIRE 208 496 208 464
WIRE 208 624 208 576
FLAG 192 256 0
FLAG 400 352 0
FLAG 208 -240 0
FLAG 208 624 0
FLAG 1024 352 0
FLAG 784 352 0
FLAG 1088 96 output
IOPIN 1088 96 Out
SYMBOL AutoGenerated/BFP520_INF 272 144 R0
SYMATTR InstName U1
SYMBOL AutoGenerated/BFP520_INF 272 368 R0
SYMATTR InstName U2
SYMBOL AutoGenerated/BFP520_INF 112 368 M0
SYMATTR InstName U3
SYMBOL res 64 -48 R0
SYMATTR InstName Ri
SYMATTR Value 4.5k
SYMBOL ind 288 -48 R0
SYMATTR InstName Lp
SYMATTR Value 1n
SYMBOL cap 384 128 R0
SYMATTR InstName C1
SYMATTR Value 3.5p
SYMBOL cap 384 240 R0
SYMATTR InstName C2
SYMATTR Value 3.5p
SYMBOL voltage 208 480 R0
SYMATTR InstName Vdd
SYMATTR Value {-V_in}
SYMBOL voltage 208 -112 R180
WINDOW 0 24 96 Left 2
WINDOW 3 24 16 Left 2
SYMATTR InstName Vcc
SYMATTR Value {V_in}
SYMBOL cap 528 80 R90
WINDOW 0 0 32 VBottom 2
WINDOW 3 32 32 VTop 2
SYMATTR InstName C3
SYMATTR Value 1m
SYMBOL ind 592 112 R270
WINDOW 0 32 56 VTop 2
WINDOW 3 5 56 VBottom 2
SYMATTR InstName L1
SYMATTR Value 2n
SYMBOL ind 768 128 R0
SYMATTR InstName L2
SYMATTR Value 10n
SYMBOL cap 928 80 R90
WINDOW 0 0 32 VBottom 2
WINDOW 3 32 32 VTop 2
SYMATTR InstName C4
SYMATTR Value 0.21p
SYMBOL res 1008 128 R0
SYMATTR InstName RL
SYMATTR Value 50
TEXT 504 456 Left 2 !.tran 0 5e-8 0 5e-13
TEXT 512 488 Left 2 !.step param Vin 4 10 1
