Version 4
SHEET 1 976 724
WIRE 416 -16 416 -48
WIRE 416 128 416 64
WIRE 416 128 304 128
WIRE 304 192 304 128
WIRE 416 192 416 128
WIRE 416 304 416 272
WIRE 560 304 416 304
WIRE 800 304 624 304
WIRE 416 320 416 304
WIRE 800 320 800 304
WIRE 800 320 768 320
WIRE 832 320 800 320
WIRE 352 368 336 368
WIRE 368 368 352 368
WIRE 832 368 832 320
WIRE 176 400 128 400
WIRE 304 400 304 272
WIRE 304 400 240 400
WIRE 336 400 336 368
WIRE 336 400 304 400
WIRE 416 432 416 416
WIRE 496 432 416 432
WIRE 768 432 768 320
WIRE 832 464 832 448
WIRE 960 464 832 464
WIRE 304 480 304 400
WIRE 416 480 416 432
WIRE 832 480 832 464
WIRE 496 496 496 432
WIRE 768 592 768 496
WIRE 800 592 768 592
WIRE 832 592 832 560
WIRE 832 592 800 592
WIRE 416 624 416 560
WIRE 496 624 496 560
WIRE 496 624 416 624
WIRE 304 656 304 560
WIRE 416 656 416 624
WIRE 960 656 960 464
WIRE 128 720 128 400
WIRE 800 720 800 592
WIRE 800 720 128 720
FLAG 304 656 0
FLAG 416 656 0
FLAG 416 -48 0
FLAG 960 656 0
SYMBOL Res 400 464 R0
SYMATTR InstName R1
SYMATTR Value 10k
SYMBOL Res 288 464 R0
SYMATTR InstName R2
SYMATTR Value 10k
SYMBOL Res 288 176 R0
SYMATTR InstName R3
SYMATTR Value 10k
SYMBOL ind 400 176 R0
SYMATTR InstName L1
SYMATTR Value 500n
SYMBOL cap 480 496 R0
SYMATTR InstName C1
SYMATTR Value 100p
SYMBOL cap 624 288 R90
WINDOW 0 0 32 VBottom 2
WINDOW 3 32 32 VTop 2
SYMATTR InstName C2
SYMATTR Value 100p
SYMBOL cap 784 496 R180
WINDOW 0 24 56 Left 2
WINDOW 3 24 8 Left 2
SYMATTR InstName C3
SYMATTR Value 100p
SYMBOL ind 816 352 R0
SYMATTR InstName L2
SYMATTR Value 200n
SYMBOL ind 816 464 R0
SYMATTR InstName L3
SYMATTR Value 300n
SYMBOL cap 240 384 R90
WINDOW 0 0 32 VBottom 2
WINDOW 3 32 32 VTop 2
SYMATTR InstName C4
SYMATTR Value 100p
SYMBOL Voltage 416 80 R180
WINDOW 0 24 96 Left 2
WINDOW 3 24 16 Left 2
SYMATTR InstName V1
SYMATTR Value 5
SYMBOL npn 352 320 R0
SYMATTR InstName Q1
TEXT 584 48 Left 2 !.tran 5u
