Version 4
SHEET 1 1356 1008
WIRE -240 16 -240 -48
WIRE -400 160 -560 160
WIRE -320 160 -400 160
WIRE -240 160 -240 96
WIRE -240 160 -320 160
WIRE -320 208 -320 160
WIRE -240 208 -240 160
WIRE -400 240 -400 160
WIRE -560 320 -560 160
WIRE -320 336 -320 288
WIRE -240 336 -240 288
WIRE -240 336 -320 336
WIRE -128 336 -240 336
WIRE -16 336 -128 336
WIRE 784 336 48 336
WIRE -240 368 -240 336
WIRE -128 384 -128 336
WIRE -400 416 -400 320
WIRE -304 416 -400 416
WIRE 784 416 784 336
WIRE -400 448 -400 416
WIRE -240 496 -240 464
WIRE -240 496 -304 496
WIRE -128 496 -128 448
WIRE -128 496 -240 496
WIRE -304 512 -304 496
WIRE -128 512 -128 496
WIRE -560 576 -560 400
WIRE -480 576 -560 576
WIRE -400 576 -400 528
WIRE -128 592 -128 576
WIRE 784 592 784 496
WIRE -560 608 -560 576
WIRE -304 608 -304 592
WIRE -240 608 -240 496
WIRE -480 656 -480 576
WIRE -480 656 -496 656
WIRE -304 656 -480 656
WIRE -560 784 -560 704
WIRE -240 784 -240 704
WIRE -240 784 -560 784
WIRE -240 848 -240 784
WIRE -240 992 -240 928
FLAG -240 -48 0
FLAG -240 992 0
FLAG -400 576 0
FLAG -304 608 0
FLAG -128 592 0
FLAG -128 336 V1
FLAG 784 592 0
SYMBOL npn -304 368 R0
SYMATTR InstName Q1
SYMATTR Value BFP520
SYMBOL ind -304 304 R180
WINDOW 0 36 80 Left 2
WINDOW 3 36 40 Left 2
SYMATTR InstName Lp1
SYMATTR Value 1n
SYMBOL Res -256 192 R0
SYMATTR InstName Rp1
SYMATTR Value 50k
SYMBOL Voltage -240 112 R180
WINDOW 0 24 96 Left 2
WINDOW 3 24 16 Left 2
SYMATTR InstName Vcc1
SYMATTR Value 5
SYMBOL npn -304 608 R0
SYMATTR InstName Qi1
SYMATTR Value BFP520
SYMBOL npn -496 608 M0
SYMATTR InstName Qi2
SYMATTR Value BFP520
SYMBOL Res -576 304 R0
SYMATTR InstName R1
SYMATTR Value 9.3k
SYMBOL Voltage -240 832 R0
SYMATTR InstName Vee1
SYMATTR Value -5
SYMBOL Res -384 224 M0
SYMATTR InstName Rb1
SYMATTR Value 20k
SYMBOL Res -384 432 M0
SYMATTR InstName Rb2
SYMATTR Value 30k
SYMBOL current -304 592 R180
WINDOW 0 24 80 Left 2
WINDOW 3 24 0 Left 2
WINDOW 123 24 58 Left 2
SYMATTR InstName Iac1
SYMATTR Value ""
SYMATTR Value2 AC 1
SYMBOL cap -144 384 R0
SYMATTR InstName C1
SYMATTR Value 4.1p
SYMBOL cap -144 512 R0
SYMATTR InstName C2
SYMATTR Value 4.1p
SYMBOL Res 768 400 R0
SYMATTR InstName Rload1
SYMATTR Value 50k
SYMBOL cap 48 320 R90
WINDOW 0 0 32 VBottom 2
WINDOW 3 32 32 VTop 2
SYMATTR InstName C3
SYMATTR Value 1m
TEXT 208 408 Left 2 !.include ../Spice-Models/BFP520.lib
TEXT 216 464 Left 2 ;.ac lin 2000 1e9 10e9
TEXT 224 504 Left 2 !.tran 0 3e-8 0 2e-11
