Version 4
SHEET 1 1264 680
WIRE 352 224 240 224
WIRE 576 224 432 224
WIRE 704 224 576 224
WIRE 944 224 784 224
WIRE 240 304 240 224
WIRE 576 336 576 224
WIRE 944 336 944 224
WIRE 240 480 240 384
WIRE 576 496 576 400
WIRE 944 496 944 416
FLAG 576 496 0
FLAG 240 480 0
FLAG 944 496 0
FLAG 240 224 Z_load_seen_by_osc
SYMBOL ind 336 240 R270
WINDOW 0 32 56 VTop 2
WINDOW 3 5 56 VBottom 2
SYMATTR InstName L_src
SYMATTR Value 2.22502e-07
SYMBOL ind 688 240 R270
WINDOW 0 32 56 VTop 2
WINDOW 3 5 56 VBottom 2
SYMATTR InstName L_ld
SYMATTR Value 6.88874e-08
SYMBOL Res 928 320 R0
SYMATTR InstName Rload
SYMATTR Value 50
SYMBOL cap 560 336 R0
SYMATTR InstName C_com
SYMATTR Value 3.00153e-14
SYMBOL voltage 240 288 R0
WINDOW 123 24 118 Left 2
SYMATTR Value2 AC 1 0
SYMATTR InstName V1
SYMATTR Value ""
TEXT 976 96 Left 2 !.ac lin 10000000 1e9 6e9
TEXT 1008 136 Left 2 !.net V1 I(Rload)
