Version 4
SHEET 1 1264 680
WIRE 384 224 240 224
WIRE 544 224 464 224
WIRE 736 224 544 224
WIRE 816 224 736 224
WIRE 992 224 880 224
WIRE 736 288 736 224
WIRE 240 304 240 224
WIRE 544 304 544 224
WIRE 992 304 992 224
WIRE 240 480 240 384
WIRE 544 480 544 368
WIRE 736 480 736 368
WIRE 992 480 992 384
FLAG 240 480 0
FLAG 240 224 Z_load_seen_by_osc
FLAG 544 480 0
FLAG 736 480 0
FLAG 992 480 0
SYMBOL ind 368 240 R270
WINDOW 0 32 56 VTop 2
WINDOW 3 5 56 VBottom 2
SYMATTR InstName L_src1
SYMATTR Value 1.0168e-08
SYMBOL ind 752 384 R180
WINDOW 0 36 80 Left 2
WINDOW 3 -135 8 Left 2
SYMATTR InstName L_ld1
SYMATTR Value 1.06764e-08
SYMBOL cap 528 304 R0
SYMATTR InstName C_src1
SYMATTR Value 9.68384e-15
SYMBOL cap 880 208 R90
WINDOW 0 0 32 VBottom 2
WINDOW 3 32 32 VTop 2
SYMATTR InstName C_ld1
SYMATTR Value 2.03361e-13
SYMBOL Res 976 288 R0
SYMATTR InstName Rload1
SYMATTR Value 50
SYMBOL current 240 384 R180
WINDOW 0 24 80 Left 2
WINDOW 3 24 0 Left 2
WINDOW 123 24 -22 Left 2
SYMATTR InstName I1
SYMATTR Value ""
SYMATTR Value2 AC 1 0
TEXT 976 96 Left 2 !.ac lin 10000000 1e9 6e9
TEXT 1008 136 Left 2 !.net I1 I(Rload)
