Version 4
SHEET 1 1264 680
WIRE 400 224 96 224
WIRE 544 224 480 224
WIRE 736 224 544 224
WIRE 816 224 736 224
WIRE 992 224 880 224
WIRE 736 288 736 224
WIRE 992 304 992 224
WIRE 96 320 96 224
WIRE 544 320 544 224
WIRE 96 480 96 400
WIRE 544 480 544 384
WIRE 736 480 736 368
WIRE 992 480 992 384
FLAG 736 480 0
FLAG 992 480 0
FLAG 96 480 0
FLAG 544 480 0
SYMBOL ind 752 384 R180
WINDOW 0 36 80 Left 2
WINDOW 3 -135 8 Left 2
SYMATTR InstName L_ld1
SYMATTR Value 1.04421e-08
SYMBOL cap 880 208 R90
WINDOW 0 0 32 VBottom 2
WINDOW 3 32 32 VTop 2
SYMATTR InstName C_ld1
SYMATTR Value 2.08424e-13
SYMBOL Res 976 288 R0
SYMATTR InstName Rload
SYMATTR Value 50
SYMBOL voltage 96 304 R0
WINDOW 123 24 38 Left 2
WINDOW 39 24 60 Left 2
SYMATTR Value2 AC 1 0
SYMATTR InstName V1
SYMATTR Value ""
SYMATTR SpiceLine Rser=1k
SYMBOL cap 528 320 R0
SYMATTR InstName C1
SYMATTR Value 2.02955e-15
SYMBOL ind 384 240 R270
WINDOW 0 32 56 VTop 2
WINDOW 3 5 56 VBottom 2
SYMATTR InstName L1
SYMATTR Value 2.03361e-09
TEXT 976 96 Left 2 !.ac lin 1e3 1e9 5e9
TEXT 1008 136 Left 2 !.net I(Rload) V1
